!-Generator IDFEditor 1.53
!-Option SortedOrder

!-NOTE: All comments with '!-' are ignored by the IDFEditor and are generated automatically.
!-      Use '!' comments if they need to be retained when using the IDFEditor.


!-   ===========  ALL OBJECTS IN CLASS: VERSION ===========

Version,
    22.2;                    !- Version Identifier


!-   ===========  ALL OBJECTS IN CLASS: SIMULATIONCONTROL ===========

SimulationControl,
    No,                      !- Do Zone Sizing Calculation
    No,                      !- Do System Sizing Calculation
    No,                      !- Do Plant Sizing Calculation
    No,                      !- Run Simulation for Sizing Periods
    Yes,                     !- Run Simulation for Weather File Run Periods
    No,                      !- Do HVAC Sizing Simulation for Sizing Periods
    1;                       !- Maximum Number of HVAC Sizing Simulation Passes


!-   ===========  ALL OBJECTS IN CLASS: BUILDING ===========

Building,
    TAMBO,                   !- Name
    -0,                      !- North Axis {deg}
    Country,                 !- Terrain
    0.04,                    !- Loads Convergence Tolerance Value {W}
    0.4,                     !- Temperature Convergence Tolerance Value {deltaC}
    FullInteriorAndExterior, !- Solar Distribution
    25,                      !- Maximum Number of Warmup Days
    ;                        !- Minimum Number of Warmup Days


!-   ===========  ALL OBJECTS IN CLASS: SHADOWCALCULATION ===========

ShadowCalculation,
    PolygonClipping,         !- Shading Calculation Method
    Periodic,                !- Shading Calculation Update Frequency Method
    20,                      !- Shading Calculation Update Frequency
    15000,                   !- Maximum Figures in Shadow Overlap Calculations
    SutherlandHodgman;       !- Polygon Clipping Algorithm


!-   ===========  ALL OBJECTS IN CLASS: SURFACECONVECTIONALGORITHM:INSIDE ===========

SurfaceConvectionAlgorithm:Inside,
    TARP;                    !- Algorithm


!-   ===========  ALL OBJECTS IN CLASS: SURFACECONVECTIONALGORITHM:OUTSIDE ===========

SurfaceConvectionAlgorithm:Outside,
    TARP;                    !- Algorithm


!-   ===========  ALL OBJECTS IN CLASS: HEATBALANCEALGORITHM ===========

HeatBalanceAlgorithm,
    ConductionTransferFunction,  !- Algorithm
    200,                     !- Surface Temperature Upper Limit {C}
    0.1;                     !- Minimum Surface Convection Heat Transfer Coefficient Value {W/m2-K}


!-   ===========  ALL OBJECTS IN CLASS: TIMESTEP ===========

Timestep,
    4;                       !- Number of Timesteps per Hour


!-   ===========  ALL OBJECTS IN CLASS: SITE:LOCATION ===========

Site:Location,
    Kallapuma,               !- Name
    -17.317,                 !- Latitude {deg}
    -69.731,                 !- Longitude {deg}
    -5,                      !- Time Zone {hr}
    4266;                    !- Elevation {m}


!-   ===========  ALL OBJECTS IN CLASS: RUNPERIOD ===========

RunPeriod,
    Run Period 1,            !- Name
    10,                      !- Begin Month
    15,                      !- Begin Day of Month
    2019,                    !- Begin Year
    11,                      !- End Month
    5,                       !- End Day of Month
    2019,                    !- End Year
    ,                        !- Day of Week for Start Day
    No,                      !- Use Weather File Holidays and Special Days
    No,                      !- Use Weather File Daylight Saving Period
    No,                      !- Apply Weekend Holiday Rule
    Yes,                     !- Use Weather File Rain Indicators
    Yes;                     !- Use Weather File Snow Indicators


!-   ===========  ALL OBJECTS IN CLASS: SITE:GROUNDTEMPERATURE:BUILDINGSURFACE ===========

Site:GroundTemperature:BuildingSurface,
    8.9,                     !- January Ground Temperature {C}
    9.1,                     !- February Ground Temperature {C}
    9.1,                     !- March Ground Temperature {C}
    6.9,                     !- April Ground Temperature {C}
    6.5,                     !- May Ground Temperature {C}
    6.1,                     !- June Ground Temperature {C}
    5.6,                     !- July Ground Temperature {C}
    5.3,                     !- August Ground Temperature {C}
    7.97,                    !- September Ground Temperature {C}
    7.97,                    !- October Ground Temperature {C}
    9.13,                    !- November Ground Temperature {C}
    9.13;                    !- December Ground Temperature {C}


!-   ===========  ALL OBJECTS IN CLASS: SCHEDULETYPELIMITS ===========

ScheduleTypeLimits,
    number,                  !- Name
    ,                        !- Lower Limit Value
    ,                        !- Upper Limit Value
    ,                        !- Numeric Type
    dimensionless;           !- Unit Type

ScheduleTypeLimits,
    temperature,             !- Name
    -60,                     !- Lower Limit Value
    200,                     !- Upper Limit Value
    Continuous,              !- Numeric Type
    temperature;             !- Unit Type


!-   ===========  ALL OBJECTS IN CLASS: SCHEDULE:COMPACT ===========

Schedule:Compact,
    calentamiento,           !- Name
    temperature,             !- Schedule Type Limits Name
    Through: 1/31,           !- Field 1
    For: AllDays,            !- Field 2
    Until: 24:00,            !- Field 3
    15.7,                    !- Field 4
    Through: 2/28,           !- Field 5
    For: AllDays,            !- Field 6
    Until: 24:00,            !- Field 7
    15.7,                    !- Field 8
    Through: 3/31,           !- Field 9
    For: AllDays,            !- Field 10
    Until: 24:00,            !- Field 11
    15.5,                    !- Field 12
    Through: 4/30,           !- Field 13
    For: AllDays,            !- Field 14
    Until: 24:00,            !- Field 15
    14.5,                    !- Field 16
    Through: 5/31,           !- Field 17
    For: AllDays,            !- Field 18
    Until: 24:00,            !- Field 19
    13.4,                    !- Field 20
    Through: 6/30,           !- Field 21
    For: AllDays,            !- Field 22
    Until: 24:00,            !- Field 23
    12.7,                    !- Field 24
    Through: 7/31,           !- Field 25
    For: AllDays,            !- Field 26
    Until: 24:00,            !- Field 27
    12.4,                    !- Field 28
    Through: 8/31,           !- Field 29
    For: AllDays,            !- Field 30
    Until: 24:00,            !- Field 31
    12.9,                    !- Field 32
    Through: 9/30,           !- Field 33
    For: AllDays,            !- Field 34
    Until: 24:00,            !- Field 35
    14.1,                    !- Field 36
    Through: 10/31,          !- Field 37
    For: AllDays,            !- Field 38
    Until: 24:00,            !- Field 39
    14.7,                    !- Field 40
    Through: 11/30,          !- Field 41
    For: AllDays,            !- Field 42
    Until: 24:00,            !- Field 43
    15.2,                    !- Field 44
    Through: 12/31,          !- Field 45
    For: AllDays,            !- Field 46
    Until: 24:00,            !- Field 47
    15.7;                    !- Field 48

Schedule:Compact,
    enfriamiento,            !- Name
    temperature,             !- Schedule Type Limits Name
    Through: 1/31,           !- Field 1
    For: AllDays,            !- Field 2
    Until: 24:00,            !- Field 3
    15.7,                    !- Field 4
    Through: 2/28,           !- Field 5
    For: AllDays,            !- Field 6
    Until: 24:00,            !- Field 7
    15.7,                    !- Field 8
    Through: 3/31,           !- Field 9
    For: AllDays,            !- Field 10
    Until: 24:00,            !- Field 11
    15.5,                    !- Field 12
    Through: 4/30,           !- Field 13
    For: AllDays,            !- Field 14
    Until: 24:00,            !- Field 15
    14.5,                    !- Field 16
    Through: 5/31,           !- Field 17
    For: AllDays,            !- Field 18
    Until: 24:00,            !- Field 19
    13.4,                    !- Field 20
    Through: 6/30,           !- Field 21
    For: AllDays,            !- Field 22
    Until: 24:00,            !- Field 23
    12.7,                    !- Field 24
    Through: 7/31,           !- Field 25
    For: AllDays,            !- Field 26
    Until: 24:00,            !- Field 27
    12.4,                    !- Field 28
    Through: 8/31,           !- Field 29
    For: AllDays,            !- Field 30
    Until: 24:00,            !- Field 31
    12.9,                    !- Field 32
    Through: 9/30,           !- Field 33
    For: AllDays,            !- Field 34
    Until: 24:00,            !- Field 35
    14.1,                    !- Field 36
    Through: 10/31,          !- Field 37
    For: AllDays,            !- Field 38
    Until: 24:00,            !- Field 39
    14.7,                    !- Field 40
    Through: 11/30,          !- Field 41
    For: AllDays,            !- Field 42
    Until: 24:00,            !- Field 43
    15.2,                    !- Field 44
    Through: 12/31,          !- Field 45
    For: AllDays,            !- Field 46
    Until: 24:00,            !- Field 47
    15.7;                    !- Field 48

Schedule:Compact,
    infiltracion,            !- Name
    number,                  !- Schedule Type Limits Name
    Through: 12/31,          !- Field 1
    For: AllDays,            !- Field 2
    Until: 06:00,            !- Field 3
    .1,                      !- Field 4
    Until: 12:00,            !- Field 5
    1,                       !- Field 6
    Until: 18:00,            !- Field 7
    1,                       !- Field 8
    Until: 24:00,            !- Field 9
    .1;                      !- Field 10


!-   ===========  ALL OBJECTS IN CLASS: MATERIAL ===========

Material,
    ceramica,                !- Name
    MediumRough,             !- Roughness
    0.01,                    !- Thickness {m}
    1.3,                     !- Conductivity {W/m-K}
    2300,                    !- Density {kg/m3}
    840,                     !- Specific Heat {J/kg-K}
    0.9,                     !- Thermal Absorptance
    0.3,                     !- Solar Absorptance
    0.3;                     !- Visible Absorptance

Material,
    concreto pared,          !- Name
    MediumRough,             !- Roughness
    0.015,                   !- Thickness {m}
    1.51,                    !- Conductivity {W/m-K}
    2300,                    !- Density {kg/m3}
    1000,                    !- Specific Heat {J/kg-K}
    0.9,                     !- Thermal Absorptance
    0.6,                     !- Solar Absorptance
    0.6;                     !- Visible Absorptance

Material,
    concreto piso,           !- Name
    MediumRough,             !- Roughness
    0.2,                     !- Thickness {m}
    1.51,                    !- Conductivity {W/m-K}
    2300,                    !- Density {kg/m3}
    1000,                    !- Specific Heat {J/kg-K}
    0.9,                     !- Thermal Absorptance
    0.7,                     !- Solar Absorptance
    0.7;                     !- Visible Absorptance

Material,
    ladrillo,                !- Name
    Rough,                   !- Roughness
    0.12,                    !- Thickness {m}
    0.47,                    !- Conductivity {W/m-K}
    1000,                    !- Density {kg/m3}
    930,                     !- Specific Heat {J/kg-K}
    0.9,                     !- Thermal Absorptance
    0.7,                     !- Solar Absorptance
    0.7;                     !- Visible Absorptance

Material,
    laton,                   !- Name
    Smooth,                  !- Roughness
    0.002,                   !- Thickness {m}
    120,                     !- Conductivity {W/m-K}
    8400,                    !- Density {kg/m3}
    380,                     !- Specific Heat {J/kg-K}
    0.9,                     !- Thermal Absorptance
    0.4,                     !- Solar Absorptance
    0.4;                     !- Visible Absorptance

Material,
    madera pared,            !- Name
    MediumRough,             !- Roughness
    0.01,                    !- Thickness {m}
    0.14,                    !- Conductivity {W/m-K}
    400,                     !- Density {kg/m3}
    1600,                    !- Specific Heat {J/kg-K}
    0.9,                     !- Thermal Absorptance
    0.75,                    !- Solar Absorptance
    0.75;                    !- Visible Absorptance

Material,
    madera piso,             !- Name
    MediumSmooth,            !- Roughness
    0.025,                   !- Thickness {m}
    0.23,                    !- Conductivity {W/m-K}
    800,                     !- Density {kg/m3}
    1600,                    !- Specific Heat {J/kg-K}
    0.9,                     !- Thermal Absorptance
    0.8,                     !- Solar Absorptance
    0.8;                     !- Visible Absorptance

Material,
    madera puerta,           !- Name
    MediumSmooth,            !- Roughness
    0.04,                    !- Thickness {m}
    0.18,                    !- Conductivity {W/m-K}
    550,                     !- Density {kg/m3}
    1600,                    !- Specific Heat {J/kg-K}
    0.9,                     !- Thermal Absorptance
    0.7,                     !- Solar Absorptance
    0.7;                     !- Visible Absorptance

Material,
    poliuretano,             !- Name
    MediumRough,             !- Roughness
    0.05,                    !- Thickness {m}
    0.02,                    !- Conductivity {W/m-K}
    35,                      !- Density {kg/m3}
    1400,                    !- Specific Heat {J/kg-K}
    0.9,                     !- Thermal Absorptance
    0.7,                     !- Solar Absorptance
    0.7;                     !- Visible Absorptance

Material,
    techo falso,             !- Name
    Smooth,                  !- Roughness
    0.01,                    !- Thickness {m}
    0.17,                    !- Conductivity {W/m-K}
    1390,                    !- Density {kg/m3}
    900,                     !- Specific Heat {J/kg-K}
    0.9,                     !- Thermal Absorptance
    0.5,                     !- Solar Absorptance
    0.5;                     !- Visible Absorptance

Material,
    calaminon,               !- Name
    Smooth,                  !- Roughness
    0.0006,                  !- Thickness {m}
    176,                     !- Conductivity {W/m-K}
    4725,                    !- Density {kg/m3}
    655,                     !- Specific Heat {J/kg-K}
    0.9,                     !- Thermal Absorptance
    0.7,                     !- Solar Absorptance
    0.7;                     !- Visible Absorptance

Material,
    tierra,                  !- Name
    Rough,                   !- Roughness
    0.1,                     !- Thickness {m}
    0.52,                    !- Conductivity {W/m-K}
    2000,                    !- Density {kg/m3}
    1840,                    !- Specific Heat {J/kg-K}
    0.9,                     !- Thermal Absorptance
    0.7,                     !- Solar Absorptance
    0.7;                     !- Visible Absorptance


!-   ===========  ALL OBJECTS IN CLASS: WINDOWMATERIAL:GLAZING ===========

WindowMaterial:Glazing,
    mampara,                 !- Name
    SpectralAverage,         !- Optical Data Type
    ,                        !- Window Glass Spectral Data Set Name
    0.01,                    !- Thickness {m}
    ,                        !- Solar Transmittance at Normal Incidence
    ,                        !- Front Side Solar Reflectance at Normal Incidence
    ,                        !- Back Side Solar Reflectance at Normal Incidence
    ,                        !- Visible Transmittance at Normal Incidence
    ,                        !- Front Side Visible Reflectance at Normal Incidence
    ,                        !- Back Side Visible Reflectance at Normal Incidence
    ,                        !- Infrared Transmittance at Normal Incidence
    0.84,                    !- Front Side Infrared Hemispherical Emissivity
    0.84,                    !- Back Side Infrared Hemispherical Emissivity
    0.9,                     !- Conductivity {W/m-K}
    1,                       !- Dirt Correction Factor for Solar and Visible Transmittance
    No;                      !- Solar Diffusing

WindowMaterial:Glazing,
    vidrio,                  !- Name
    SpectralAverage,         !- Optical Data Type
    ,                        !- Window Glass Spectral Data Set Name
    0.003,                   !- Thickness {m}
    0.837,                   !- Solar Transmittance at Normal Incidence
    0.075,                   !- Front Side Solar Reflectance at Normal Incidence
    0.075,                   !- Back Side Solar Reflectance at Normal Incidence
    0.898,                   !- Visible Transmittance at Normal Incidence
    0.081,                   !- Front Side Visible Reflectance at Normal Incidence
    0.081,                   !- Back Side Visible Reflectance at Normal Incidence
    0,                       !- Infrared Transmittance at Normal Incidence
    0.84,                    !- Front Side Infrared Hemispherical Emissivity
    0.84,                    !- Back Side Infrared Hemispherical Emissivity
    0.9;                     !- Conductivity {W/m-K}

WindowMaterial:Glazing,
    vidrio grueso,           !- Name
    SpectralAverage,         !- Optical Data Type
    ,                        !- Window Glass Spectral Data Set Name
    0.006,                   !- Thickness {m}
    0.837,                   !- Solar Transmittance at Normal Incidence
    0.075,                   !- Front Side Solar Reflectance at Normal Incidence
    0.075,                   !- Back Side Solar Reflectance at Normal Incidence
    0.898,                   !- Visible Transmittance at Normal Incidence
    0.081,                   !- Front Side Visible Reflectance at Normal Incidence
    0.081,                   !- Back Side Visible Reflectance at Normal Incidence
    0,                       !- Infrared Transmittance at Normal Incidence
    0.84,                    !- Front Side Infrared Hemispherical Emissivity
    0.84,                    !- Back Side Infrared Hemispherical Emissivity
    0.9;                     !- Conductivity {W/m-K}


!-   ===========  ALL OBJECTS IN CLASS: WINDOWMATERIAL:GAS ===========

WindowMaterial:Gas,
    aire,                    !- Name
    Air,                     !- Gas Type
    0.004;                   !- Thickness {m}


!-   ===========  ALL OBJECTS IN CLASS: CONSTRUCTION ===========

Construction,
    mampara,                 !- Name
    mampara;                 !- Outside Layer

Construction,
    pared,                   !- Name
    concreto pared,          !- Outside Layer
    ladrillo,                !- Layer 2
    concreto pared;          !- Layer 3

Construction,
    pared A banio,           !- Name
    concreto pared,          !- Outside Layer
    ladrillo,                !- Layer 2
    concreto pared,          !- Layer 3
    ceramica;                !- Layer 4

Construction,
    pared A D dama,          !- Name
    ceramica,                !- Outside Layer
    concreto pared,          !- Layer 2
    ladrillo,                !- Layer 3
    concreto pared;          !- Layer 4

Construction,
    pared B banio,           !- Name
    madera pared,            !- Outside Layer
    concreto pared,          !- Layer 2
    ladrillo,                !- Layer 3
    concreto pared,          !- Layer 4
    ceramica;                !- Layer 5

Construction,
    pared B D dama,          !- Name
    ceramica,                !- Outside Layer
    concreto pared,          !- Layer 2
    ladrillo,                !- Layer 3
    concreto pared,          !- Layer 4
    madera pared;            !- Layer 5

Construction,
    pared con madera,        !- Name
    concreto pared,          !- Outside Layer
    ladrillo,                !- Layer 2
    concreto pared,          !- Layer 3
    madera pared;            !- Layer 4

Construction,
    pared madera invert,     !- Name
    madera pared,            !- Outside Layer
    concreto pared,          !- Layer 2
    ladrillo,                !- Layer 3
    concreto pared;          !- Layer 4

Construction,
    piso,                    !- Name
    concreto piso,           !- Outside Layer
    madera piso;             !- Layer 2

Construction,
    piso banio y pasadizo,   !- Name
    concreto piso,           !- Outside Layer
    ceramica;                !- Layer 2

Construction,
    puerta,                  !- Name
    madera puerta;           !- Outside Layer

Construction,
    techo,                   !- Name
    techo falso;             !- Outside Layer

Construction,
    techo laton,             !- Name
    calaminon;               !- Outside Layer

Construction,
    tejado,                  !- Name
    calaminon,               !- Outside Layer
    poliuretano,             !- Layer 2
    calaminon;               !- Layer 3

Construction,
    ventana,                 !- Name
    vidrio;                  !- Outside Layer

Construction,
    ventana gruesa,          !- Name
    vidrio grueso;           !- Outside Layer

Construction,
    vifrio doble,            !- Name
    vidrio,                  !- Outside Layer
    aire,                    !- Layer 2
    vidrio;                  !- Layer 3


!-   ===========  ALL OBJECTS IN CLASS: GLOBALGEOMETRYRULES ===========

GlobalGeometryRules,
    UpperLeftCorner,         !- Starting Vertex Position
    Counterclockwise,        !- Vertex Entry Direction
    Relative,                !- Coordinate System
    Relative,                !- Daylighting Reference Point Coordinate System
    Relative;                !- Rectangular Surface Coordinate System


!-   ===========  ALL OBJECTS IN CLASS: ZONE ===========

Zone,
    Almacen Thermal Zone,    !- Name
    16.6,                    !- Direction of Relative North {deg}
    4.28849352073147,        !- X Origin {m}
    -1.27845544413726,       !- Y Origin {m}
    0;                       !- Z Origin {m}

Zone,
    Banio damas Thermal Zone,!- Name
    16.6,                    !- Direction of Relative North {deg}
    13.1897182469863,        !- X Origin {m}
    -0.525031013480952,      !- Y Origin {m}
    -2.06980233999243e-015;  !- Z Origin {m}

Zone,
    Banio ext discap Thermal Zone,  !- Name
    16.6,                    !- Direction of Relative North {deg}
    9.0947498515972,         !- X Origin {m}
    8.19320756095393,        !- Y Origin {m}
    -1.47263152335114e-019;  !- Z Origin {m}

Zone,
    Banio ext hombres Thermal Zone,  !- Name
    16.6,                    !- Direction of Relative North {deg}
    13.1580375673294,        !- X Origin {m}
    6.98188888315685,        !- Y Origin {m}
    1.86808127328602e-017;   !- Z Origin {m}

Zone,
    Banio ext mujeres Thermal Zone,  !- Name
    16.6,                    !- Direction of Relative North {deg}
    11.2474298506182,        !- X Origin {m}
    7.55146578125214,        !- Y Origin {m}
    -5.16269503212027e-019;  !- Z Origin {m}

Zone,
    Banio tambero Thermal Zone,  !- Name
    16.6,                    !- Direction of Relative North {deg}
    14.1639155798372,        !- X Origin {m}
    2.74284896544515,        !- Y Origin {m}
    -2.81125361526413e-016;  !- Z Origin {m}

Zone,
    Banio varones Thermal Zone,  !- Name
    16.6,                    !- Direction of Relative North {deg}
    5.79532824577226,        !- X Origin {m}
    3.77612114262164,        !- Y Origin {m}
    0;                       !- Z Origin {m}

Zone,
    Dormitorio damas,        !- Name
    16.6,                    !- Direction of Relative North {deg}
    12.2569457274091,        !- X Origin {m}
    -3.65395421910961,       !- Y Origin {m}
    -2.81125361526413e-016;  !- Z Origin {m}

Zone,
    Dormitorio p seguridad Thermal Zone,  !- Name
    16.6,                    !- Direction of Relative North {deg}
    14.5210260390935,        !- X Origin {m}
    3.94075218352657,        !- Y Origin {m}
    -2.81125361526413e-016;  !- Z Origin {m}

Zone,
    Dormitorio tambero Thermal Zone,  !- Name
    16.6,                    !- Direction of Relative North {deg}
    13.5782544266571,        !- X Origin {m}
    0.778287687791629,       !- Y Origin {m}
    -2.81125361526413e-016;  !- Z Origin {m}

Zone,
    Dormitorio varones Thermal Zone,  !- Name
    16.6,                    !- Direction of Relative North {deg}
    5.22126604030871,        !- X Origin {m}
    1.8504677614914,         !- Y Origin {m}
    0;                       !- Z Origin {m}

Zone,
    Pasadizo banios Thermal Zone,  !- Name
    16.6,                    !- Direction of Relative North {deg}
    6.51686278649026,        !- X Origin {m}
    6.19646063669078,        !- Y Origin {m}
    0;                       !- Z Origin {m}

Zone,
    Pasadizo Thermal Zone,   !- Name
    16.6,                    !- Direction of Relative North {deg}
    6.19546337315967,        !- X Origin {m}
    5.11834774041751,        !- Y Origin {m}
    0;                       !- Z Origin {m}

Zone,
    Techo Thermal Zone,      !- Name
    16.6,                    !- Direction of Relative North {deg}
    11.9712573600041,        !- X Origin {m}
    -4.61227679357474,       !- Y Origin {m}
    2.8;                     !- Z Origin {m}


!-   ===========  ALL OBJECTS IN CLASS: BUILDINGSURFACE:DETAILED ===========

BuildingSurface:Detailed,
    p1 AL,                   !- Name
    Wall,                    !- Surface Type
    pared,                   !- Construction Name
    Almacen Thermal Zone,    !- Zone Name
    ,                        !- Space Name
    Adiabatic,               !- Outside Boundary Condition
    ,                        !- Outside Boundary Condition Object
    NoSun,                   !- Sun Exposure
    NoWind,                  !- Wind Exposure
    ,                        !- View Factor to Ground
    ,                        !- Number of Vertices
    -4.475,                  !- Vertex 1 X-coordinate {m}
    5.2741,                  !- Vertex 1 Y-coordinate {m}
    2.8,                     !- Vertex 1 Z-coordinate {m}
    -4.475,                  !- Vertex 2 X-coordinate {m}
    5.2741,                  !- Vertex 2 Y-coordinate {m}
    0,                       !- Vertex 2 Z-coordinate {m}
    -4.475,                  !- Vertex 3 X-coordinate {m}
    2.40444803911364e-031,   !- Vertex 3 Y-coordinate {m}
    0,                       !- Vertex 3 Z-coordinate {m}
    -4.475,                  !- Vertex 4 X-coordinate {m}
    2.40444803911364e-031,   !- Vertex 4 Y-coordinate {m}
    2.8;                     !- Vertex 4 Z-coordinate {m}

BuildingSurface:Detailed,
    p2 AL,                   !- Name
    Wall,                    !- Surface Type
    pared,                   !- Construction Name
    Almacen Thermal Zone,    !- Zone Name
    ,                        !- Space Name
    Outdoors,                !- Outside Boundary Condition
    ,                        !- Outside Boundary Condition Object
    SunExposed,              !- Sun Exposure
    WindExposed,             !- Wind Exposure
    ,                        !- View Factor to Ground
    ,                        !- Number of Vertices
    -4.475,                  !- Vertex 1 X-coordinate {m}
    2.40444803911364e-031,   !- Vertex 1 Y-coordinate {m}
    2.8,                     !- Vertex 1 Z-coordinate {m}
    -4.475,                  !- Vertex 2 X-coordinate {m}
    2.40444803911364e-031,   !- Vertex 2 Y-coordinate {m}
    0,                       !- Vertex 2 Z-coordinate {m}
    -1.43432636910959e-078,  !- Vertex 3 X-coordinate {m}
    -2.66947357453878e-047,  !- Vertex 3 Y-coordinate {m}
    0,                       !- Vertex 3 Z-coordinate {m}
    -1.43432636910959e-078,  !- Vertex 4 X-coordinate {m}
    -2.66947357453878e-047,  !- Vertex 4 Y-coordinate {m}
    2.8;                     !- Vertex 4 Z-coordinate {m}

BuildingSurface:Detailed,
    p3 AL,                   !- Name
    Wall,                    !- Surface Type
    pared,                   !- Construction Name
    Almacen Thermal Zone,    !- Zone Name
    ,                        !- Space Name
    Surface,                 !- Outside Boundary Condition
    p1 DV,                   !- Outside Boundary Condition Object
    NoSun,                   !- Sun Exposure
    NoWind,                  !- Wind Exposure
    ,                        !- View Factor to Ground
    ,                        !- Number of Vertices
    0,                       !- Vertex 1 X-coordinate {m}
    0,                       !- Vertex 1 Y-coordinate {m}
    2.8,                     !- Vertex 1 Z-coordinate {m}
    0,                       !- Vertex 2 X-coordinate {m}
    0,                       !- Vertex 2 Y-coordinate {m}
    0,                       !- Vertex 2 Z-coordinate {m}
    -7.21911419532262e-016,  !- Vertex 3 X-coordinate {m}
    3.265,                   !- Vertex 3 Y-coordinate {m}
    0,                       !- Vertex 3 Z-coordinate {m}
    -7.21911419532262e-016,  !- Vertex 4 X-coordinate {m}
    3.265,                   !- Vertex 4 Y-coordinate {m}
    2.8;                     !- Vertex 4 Z-coordinate {m}

BuildingSurface:Detailed,
    p4 AL,                   !- Name
    Wall,                    !- Surface Type
    pared,                   !- Construction Name
    Almacen Thermal Zone,    !- Zone Name
    ,                        !- Space Name
    Surface,                 !- Outside Boundary Condition
    p1 BV,                   !- Outside Boundary Condition Object
    NoSun,                   !- Sun Exposure
    NoWind,                  !- Wind Exposure
    ,                        !- View Factor to Ground
    ,                        !- Number of Vertices